Mon May  1 22:21:26 EDT 2023
dcc-ultrasound-02
Python 3.8.1 DEPRECATED! See https://dcc.duke.edu/software/user/ for installing Miniconda
LS-DYNA R12.0.0
Matlab R2022a
Submitted batch job 31002283
Submitted batch job 31002284
Submitted batch job 31002285
Submitted batch job 31002286
Submitted batch job 31002287
Submitted batch job 31002288
Submitted batch job 31002289
Submitted batch job 31002290
Submitted batch job 31002291
Submitted batch job 31002292
Submitted batch job 31002293
Submitted batch job 31002294
Submitted batch job 31002295
Submitted batch job 31002296
Submitted batch job 31002297
Submitted batch job 31002298
Submitted batch job 31002299
Submitted batch job 31002300
Submitted batch job 31002301
Submitted batch job 31002303
Submitted batch job 31002306
Submitted batch job 31002307
Submitted batch job 31002309
Submitted batch job 31002311
Submitted batch job 31002312
Submitted batch job 31002313
Submitted batch job 31002314
Submitted batch job 31002315
Submitted batch job 31002316
Submitted batch job 31002318
Submitted batch job 31002319
Submitted batch job 31002321
Submitted batch job 31002323
Submitted batch job 31002324
Submitted batch job 31002325
Submitted batch job 31002326
Submitted batch job 31002327
Submitted batch job 31002328
Submitted batch job 31002329
Submitted batch job 31002331
Submitted batch job 31002333
Submitted batch job 31002334
Submitted batch job 31002336
Submitted batch job 31002337
Submitted batch job 31002338
Submitted batch job 31002339
Submitted batch job 31002340
Submitted batch job 31002343
Submitted batch job 31002344
Submitted batch job 31002345
Submitted batch job 31002346
Submitted batch job 31002347
Submitted batch job 31002348
Submitted batch job 31002349
Submitted batch job 31002351
Submitted batch job 31002352
Submitted batch job 31002353
Submitted batch job 31002354
Submitted batch job 31002355
Submitted batch job 31002356
Submitted batch job 31002357
Submitted batch job 31002358
Submitted batch job 31002360
Submitted batch job 31002362
Submitted batch job 31002363
Submitted batch job 31002364
Submitted batch job 31002365
Submitted batch job 31002366
Submitted batch job 31002367
Submitted batch job 31002368
Submitted batch job 31002369
Submitted batch job 31002370
Submitted batch job 31002371
Submitted batch job 31002373
Submitted batch job 31002375
Submitted batch job 31002376
Submitted batch job 31002377
Submitted batch job 31002378
Submitted batch job 31002379
Submitted batch job 31002380
Submitted batch job 31002381
Submitted batch job 31002382
Submitted batch job 31002383
Submitted batch job 31002384
Submitted batch job 31002385
Submitted batch job 31002386
Submitted batch job 31002387
Submitted batch job 31002388
Submitted batch job 31002389
Submitted batch job 31002390
Submitted batch job 31002391
Submitted batch job 31002392
Submitted batch job 31002393
Submitted batch job 31002394
Submitted batch job 31002395
Submitted batch job 31002396
Submitted batch job 31002397
Submitted batch job 31002398
Submitted batch job 31002399
Submitted batch job 31002400
Submitted batch job 31002401
Submitted batch job 31002402
Submitted batch job 31002403
Submitted batch job 31002404
Submitted batch job 31002405
Submitted batch job 31002406
Submitted batch job 31002407
Submitted batch job 31002408
Submitted batch job 31002409
Submitted batch job 31002410
Submitted batch job 31002411
Submitted batch job 31002412
Submitted batch job 31002413
Submitted batch job 31002414
Submitted batch job 31002415
Submitted batch job 31002416
Submitted batch job 31002417
Submitted batch job 31002418
Submitted batch job 31002419
Submitted batch job 31002420
Submitted batch job 31002421
Submitted batch job 31002422
Submitted batch job 31002423
Submitted batch job 31002424
Submitted batch job 31002425
Submitted batch job 31002426
Submitted batch job 31002427
Submitted batch job 31002428
Submitted batch job 31002429
Submitted batch job 31002430
Submitted batch job 31002431
Submitted batch job 31002432
Submitted batch job 31002433
Submitted batch job 31002435
Submitted batch job 31002436
Submitted batch job 31002437
Submitted batch job 31002438
Submitted batch job 31002439
Submitted batch job 31002440
Submitted batch job 31002441
Submitted batch job 31002442
Submitted batch job 31002443
Submitted batch job 31002444
Submitted batch job 31002445
Submitted batch job 31002446
Submitted batch job 31002447
Submitted batch job 31002448
Submitted batch job 31002449
Submitted batch job 31002450
Submitted batch job 31002451
Submitted batch job 31002452
Submitted batch job 31002453
Submitted batch job 31002454
Submitted batch job 31002455
Submitted batch job 31002456
Submitted batch job 31002457
Submitted batch job 31002459
Submitted batch job 31002460
Submitted batch job 31002461
Submitted batch job 31002462
Submitted batch job 31002463
Submitted batch job 31002464
Submitted batch job 31002465
Submitted batch job 31002466
Submitted batch job 31002467
Submitted batch job 31002468
Submitted batch job 31002469
Submitted batch job 31002470
Submitted batch job 31002472
Submitted batch job 31002473
Submitted batch job 31002474
Submitted batch job 31002475
Submitted batch job 31002476
Submitted batch job 31002478
Submitted batch job 31002479
Submitted batch job 31002480
Submitted batch job 31002481
Submitted batch job 31002482
Submitted batch job 31002483
Submitted batch job 31002484
Submitted batch job 31002485
Submitted batch job 31002486
Submitted batch job 31002487
Submitted batch job 31002488
Submitted batch job 31002489
Submitted batch job 31002490
Submitted batch job 31002491
Submitted batch job 31002492
Submitted batch job 31002493
Submitted batch job 31002494
Submitted batch job 31002495
Submitted batch job 31002496
Submitted batch job 31002497
Submitted batch job 31002498
Submitted batch job 31002499
Submitted batch job 31002500
Submitted batch job 31002501
Submitted batch job 31002503
Submitted batch job 31002504
Submitted batch job 31002505
Submitted batch job 31002506
Submitted batch job 31002507
Submitted batch job 31002508
Submitted batch job 31002509
Submitted batch job 31002510
Submitted batch job 31002511
Submitted batch job 31002512
Submitted batch job 31002513
Submitted batch job 31002516
Submitted batch job 31002517
Submitted batch job 31002518
Submitted batch job 31002519
Submitted batch job 31002524
Submitted batch job 31002525
Submitted batch job 31002526
Submitted batch job 31002527
Submitted batch job 31002528
Submitted batch job 31002529
Submitted batch job 31002530
Submitted batch job 31002531
Submitted batch job 31002532
Submitted batch job 31002533
Submitted batch job 31002534
Submitted batch job 31002535
Submitted batch job 31002536
Submitted batch job 31002537
Submitted batch job 31002538
Submitted batch job 31002539
Submitted batch job 31002540
Submitted batch job 31002541
Submitted batch job 31002542
Submitted batch job 31002543
Submitted batch job 31002544
Submitted batch job 31002545
Submitted batch job 31002546
Submitted batch job 31002547
Submitted batch job 31002548
Submitted batch job 31002549
Submitted batch job 31002550
Submitted batch job 31002551
Submitted batch job 31002552
Submitted batch job 31002553
Submitted batch job 31002554
Submitted batch job 31002555
Submitted batch job 31002556
Submitted batch job 31002557
Submitted batch job 31002558
Submitted batch job 31002559
Submitted batch job 31002560
Submitted batch job 31002561
Submitted batch job 31002562
Submitted batch job 31002563
Submitted batch job 31002564
Submitted batch job 31002565
Submitted batch job 31002566
Submitted batch job 31002567
Submitted batch job 31002568
Submitted batch job 31002569
Submitted batch job 31002570
Submitted batch job 31002571
Submitted batch job 31002572
Submitted batch job 31002573
Submitted batch job 31002574
Submitted batch job 31002575
Submitted batch job 31002576
Submitted batch job 31002577
Submitted batch job 31002578
Submitted batch job 31002579
Submitted batch job 31002580
Submitted batch job 31002581
Submitted batch job 31002582
Submitted batch job 31002583
Submitted batch job 31002584
Submitted batch job 31002585
Submitted batch job 31002586
Submitted batch job 31002587
Submitted batch job 31002588
Submitted batch job 31002589
Submitted batch job 31002590
Submitted batch job 31002591
Submitted batch job 31002592
Submitted batch job 31002593
Submitted batch job 31002594
Submitted batch job 31002595
Submitted batch job 31002596
Submitted batch job 31002597
Submitted batch job 31002598
Submitted batch job 31002599
Submitted batch job 31002600
Submitted batch job 31002601
Submitted batch job 31002602
Submitted batch job 31002603
Submitted batch job 31002604
Submitted batch job 31002605
Submitted batch job 31002606
Submitted batch job 31002607
Submitted batch job 31002608
Submitted batch job 31002609
Submitted batch job 31002610
Submitted batch job 31002611
